[General]
# ============================ simulation configuration ============================
network = frankfurt_urban_multi_radio
# Provides only minimal status updates on the console.
cmdenv-express-mode = true
# Allows the simulation to ask missing parameter values interactively
cmdenv-interactive = false
# Limits how long the simulation should run (in simulation time)
sim-time-limit = 440s # 450s per car for route
# Turns on the recording of the simulator events into an event log file. .elog file
#record-eventlog = false
# If the runtime detects any error, it will generate a breakpoint so you will be able to 
# check the location and the context of the problem in your debugger.
debug-on-errors = false
# cmdenv-runs-to-execute specifies which simulation runs should be executed. 
#cmdenv-runs-to-execute 
# Specifies the search path for Tkenv plugins. Tkenv plugins are .tcl
#files that get evaluated on startup
tkenv-plugin-path = ../../../etc/plugins
# Path of run files, used in bash
ned-path = ../../simulation;../../src
load-libs = ../../src/INET
# Recording results into the scalar file
# Recording results into the scalar file
**.tcpApp[*].**.scalar-recording = true
**.udpApp[*].**.scalar-recording = true
**.pingApp[*].**.scalar-recording = true
**.idLayer.**.scalar-recording = true
**.CN1[*].**.scalar-recording = true
**.MA[*].**.scalar-recording = true
**.CA.**.scalar-recording = true
**.DA1[*].**.scalar-recording = true
**.scalar-recording = false
# Recording output vector results
#**.CN1[*].**.vector-recording = true
**.tcpApp[*].**.vector-recording = true
**.udpApp[*].**.vector-recording = true
**.pingApp[*].**.vector-recording = true
**.idLayer.**.vector-recording = true
**.MA[*].mobility.**.vector-recording = true
**.MA[*].**.mgmt.**.vector-recording = true
#**.MA[*].**.mac.**.vector-recording = true
**.MA[*].**.agent.**.vector-recording = true
**.udp.**.vector-recording = true
**.tcp.**.vector-recording = true
**.vector-recording = false
# Selects the kth set of automatic random number seeds for the simulation.
# Meaningful values include ${repetition} which is the repeat loop counter (see repeat= key), and ${runnumber}.
repeat = 100
seed-set = ${runnumber}

# printing debug information
**.debug = true
# User Interface: either use TKenv for Oment GUI or Cmdenv for console output
# user-interface = Cmdenv

# --------------------------- Animation configuration ---------------------------------
#**.viewTranslation = "1100 800"
#**.updateCanvasInterval = 10ms
#**.viewAngle = "isometric"
#**.leaveMovementTrail = true
#**.leaveIntersectionTrail = true
**.leaveCommunicationTrail = true
#**.leaveCommunicationHeat = true
#**.displayCommunication = true
#**.displayCommunicationRange = true
**.displayInterferenceRange = false
#**.drawCommunication2D = true

# ============================ Scenario and application configuration =================
# number of mobile nodes and data agents 
*.total_mn = 1
*.total_da = 1
# number of correspondent node
*.total_cn = 1
# disable id layer
#**.MA[*].idLayer.isIdLayerEnabled = false

# --------------------------- PING configuration -------------------------------------
*.MA[*].numPingApps = 1
*.MA[*].pingApp[*].destAddr = "CN1[*]"
*.MA[*].pingApp[*].startTime = 20s
*.MA[*].pingApp[*].stopTime = 430s
*.MA[*].pingApp[*].packetSize = 64B
*.MA[*].pingApp[*].sendInterval = 1s	
#**.pingApp[*].printPing = false
#*.MA[*].pingApp[*].count = -1 # max no of pings to finish process
#*.MA[*].pingApp[*].stopTime = -1 # time to finish
# CN does not need to have a ping application. Ping responses are handled by IPv6.
#*.CN1[*].numPingApps = 0
#*.CN1[*].pingApp[*].destAddr = "DA1[*]"
#*.CN1[*].pingApp[*].startTime = 20s
#*.CN1[*].pingApp[*].stopTime = 430s
#*.CN1[*].pingApp[*].packetSize = 64B
#*.CN1[*].pingApp[*].sendInterval = 0.01s	

# ============================ SUMO configuration ====================================
*.manager.numVehicles = 1
*.manager.updateInterval = 0.1s
#*.manager.connectAt = 1s
*.manager.host = "localhost"
*.manager.port = 9999
*.manager.moduleType = "inet.node.ipv6mev.MobileAgent"
*.manager.moduleName = "MA"
*.manager.moduleDisplayString = ""
*.manager.autoShutdown = true
*.manager.margin = 25
*.manager.useRouteDistributions = false
*.manager.launchConfig = xmldoc("map.launchd.xml")
# --------------------------- Mobility configuration -----------------------------------
*.MA[*].mobilityType = "TraCIMobility"
**.constraintAreaMinX = 0m
**.constraintAreaMinY = 0m
**.constraintAreaMinZ = 0m
**.constraintAreaMaxX = 6231m
**.constraintAreaMaxY = 2104m
**.constraintAreaMaxZ = 50m
# --------------------------- Environment configuration --------------------------------
**.spaceMinX = 0m
**.spaceMinY = 0m
**.spaceMinZ = 0m
**.spaceMaxX = 6231m
**.spaceMaxY = 2104m
**.spaceMaxZ = 50m
# ---------------------------------------------
#**.obstacleLossType = "TracingObstacleLoss"
#**.config = xmldoc("outdoor.xml")
#**.axisLength = 100m

# ============================ ID layer configuration ==================================
**.MA[*].idLayer.controlAgent = "CA"
**.CA.idLayer.dataAgents = "DA1[*]"
**.CA.idLayer.indexOperator = 1

# ============================ Network layer configuration =============================
**.neighbourDiscovery.minIntervalBetweenRAs = 0.03s 
**.neighbourDiscovery.maxIntervalBetweenRAs = 0.07s 
# ---------------------------------------------
**.ipv6.procDelay = truncnormal(10us,30us)
# ---------------------------------------------
**.relayUnitType = "MACRelayUnit"
**.relayUnit.processingTime = truncnormal(10us,30us)
**.relayUnit.addressTableSize = 100
**.relayUnit.agingTime = 120s
**.relayUnit.bufferSize = 1MiB
**.relayUnit.highWatermark = 512KiB
**.relayUnit.pauseUnits = 300  # pause for 300*512 bit (19200 byte) time
**.relayUnit.addressTableFile = ""
**.relayUnit.numCPUs = 1

# ============================ Link layer configuration =================================
**.mac.address = "auto"
#**.mac.EDCA = false # ETSI 302 663  
#**.mac.AIFSN0 = 9 # 
#**.mac.AIFSN1 = 6 # 
#**.mac.AIFSN2 = 3 # 
#**.mac.AIFSN3 = 2 # 
##**.mac.TXOP0 = 0s
##**.mac.TXOP1 = 0s
##**.mac.TXOP2 = 0s
##**.mac.TXOP3 = 0s
#**.mac.defaultAC = 2 # 
#**.mac.AIFSN = 2 # 
#**.mac.cwMinData = 7 # 
#**.mac.cwMaxData = 15 # 
#**.mac.slotTime = 13us
#**.mac.retryLimit = 7
# ---------------------------------------------
**.mgmt.numAuthSteps = 2
**.mgmt.beaconInterval = 0.05s + uniform(-0.005s,0.005s) # 20Hz beacon intervall from 11pDC specification for freeway; 10Hz for urban environment
#**.mgmt.frameCapacity = 5
#**.opMode = "a" # does not work! only g
#**.wlan*.bitrate = 18Mbps
#**.wlan*.mac.basicBitrate = 6Mbps
#**.wlan*.mac.controlBitrate = 6Mbps
#**.wlan*.mac.autoBitrate = 1
#**.MA*.**.bitrate = 18Mbps
# --------------------------- Mobile node configuration --------------------------------
**.MA*.numRadios = 3
**.MA*.wlan[*].agent.default_ssid = "" # should be empty, else the authentication process fails
**.MA*.wlan[*].agent.activeScan = true
**.MA*.wlan[*].agent.probeDelay = 0.1s
**.MA*.wlan[*].agent.minChannelTime = 0.1s
**.MA*.wlan[*].agent.maxChannelTime = 0.3s
#**.MA*.wlan[*].agent.associationTimeout = 1s
#**.MA*.wlan[*].agent.authenticationTimeout = 1s
**.MA*.wlan[0].agent.channelsToScan = "1"  # ${channelNumber=2..10}
**.MA*.wlan[1].agent.channelsToScan = "6"  # ${channelNumber=2..10}
**.MA*.wlan[2].agent.channelsToScan = "11"  # ${channelNumber=2..10}
# --------------------------- Infrastructure configuration ------------------------------
**.AP_1.wlan*.mgmt.ssid = "AP_1"
**.AP_2.wlan*.mgmt.ssid = "AP_2"
**.AP_3.wlan*.mgmt.ssid = "AP_3"
**.AP_4.wlan*.mgmt.ssid = "AP_4"
**.AP_5.wlan*.mgmt.ssid = "AP_5"
**.AP_6.wlan*.mgmt.ssid = "AP_6"
**.AP_7.wlan*.mgmt.ssid = "AP_7"
**.AP_8.wlan*.mgmt.ssid = "AP_8"
**.AP_9.wlan*.mgmt.ssid = "AP_9"
**.AP_1.wlan*.radio.channelNumber = 1
**.AP_2.wlan*.radio.channelNumber = 6
**.AP_3.wlan*.radio.channelNumber = 11
**.AP_4.wlan*.radio.channelNumber = 1
**.AP_5.wlan*.radio.channelNumber = 6
**.AP_6.wlan*.radio.channelNumber = 11
**.AP_7.wlan*.radio.channelNumber = 1
**.AP_8.wlan*.radio.channelNumber = 6
**.AP_9.wlan*.radio.channelNumber = 11
# ---------------------------------------------
**.eth[*].queueType = "DropTailQueue" # in routers
**.eth[*].mac.promiscuous = false
**.eth[*].mac.duplexMode = true
**.eth[*].queue.pauseQueue.frameCapacity = 50  # in routers
**.ppp[*].queueType = "DropTailQueue" # in routers
**.ppp[*].queue.frameCapacity = 10  # in routers
# ============================ Physical layer configuration =================================
#**.radio.bandName = "5 GHz"
#**.radio.bandwidth = 10 MHz
#**.radio.antennaType = "IsotropicAntenna"
#**.radio.carrierFrequency = 5.89e9 Hz # ETSI 302571 - 6.10.2  
**.radio.transmitter.power = 25mW # ETSI 302663-4.3: G5 SCH2 channelNo 178; rate=12 Mbit/s; power_limit=23dBm
**.radio.receiver.sensitivity = -83dBm # -77dBm Defined as min SNR value to distinguish signal from noise. If received signal is below this value it is interpreted as noise. Value taken from C2C  system profile v1.0.4 
**.radio.receiver.energyDetection = -83dBm # -62dBm
#**.radio.receiver.snirThreshold = 0dB # defined as minimum SNR to try to interpret data. It is calculated from the sum of all received noise signals. Taken from ETSI 102687
**.radioMedium.**.maxTransmissionPower = 25mW
#**.radio.transmitter.modulation = "QAM-16"
#**.radio.receiver.modulation = "QAM-16"
**.radioMedium.pathLossType = "RicianFading" # Low packet drop: 10% - 20%
#**.radioMedium.pathLossType = "RayleighFading" # High packet drop: 30% - 50%
#**.radioMedium.pathLossType = "NakagamiFading" # Very high packet drop: 30% - 50%
#**.radioMedium.pathLossType = "FreeSpacePathLoss"
**.radioMedium.mediumLimitCache.minReceptionPower = -83dBm # ETSI  302571 6.10.2: specifies rec sensitivity -85dBm for BPSK
**.radioMedium.mediumLimitCache.minInterferencePower = 0dBm # if to high, bands overlap and causes error 'not supported'
#**.radioMedium.mediumLimitCache.maxInterferenceRange = 800m # not testes
**.radioMedium.backgroundNoise.power = -100dBm # 
**.radioMedium.propagationType = "ConstantSpeedPropagation"
#**.radioMedium.rangeFilter = "communicationRange" # Does not work. Causes error 139
#**.radioMedium.mediumLimitCache.maxCommunicationRange = 600m # ETSI102687- Table A.3
#**.radioMedium.listeningFilter = true # does not work
#**.radioMedium.radioModeFilter = true # does not work


[Config Generated_TCP_APPS]
# --------------------------- TCP configuration --------------------------------------

#[Insert_generated_tcp_apps_here]

[Config Generated_scheduled_TCP_APPS]
# --------------------------- TCP configuration --------------------------------------

**.numTcpApps = 4
**.MA[*].tcpApp[*].typename = "TCPSessionApp" 

**.MA[*].tcpApp[0].active = true
**.MA[*].tcpApp[0].localPort = -1
**.MA[*].tcpApp[0].connectAddress = "CN1[*]"
**.MA[*].tcpApp[0].connectPort = 1000
**.MA[*].tcpApp[0].tOpen = 10s
**.MA[*].tcpApp[0].tSend = 25.0s
**.MA[*].tcpApp[0].sendBytes = 0B
**.MA[*].tcpApp[0].sendScript = " 25.0 340; 25.1 340; 25.2 340; 25.3 340; 25.4 340; 25.5 340; 25.6 340; 25.7 340; 25.8 340; 25.9 340; 26.0 340; 26.1 340; 26.2 340; 26.3 340; 26.4 340; 26.5 340; 26.6 340; 26.7 340; 26.8 340; 26.9 340; 27.0 340; 27.1 340; 27.2 340; 27.3 340; 27.4 340; 27.5 340; 27.6 340; 27.7 340; 27.8 340; 27.9 340; 28.0 340; 28.1 340; 28.2 340; 28.3 340; 28.4 340; 28.5 340; 28.6 340; 28.7 340; 28.8 340; 28.9 340; 29.0 340; 29.1 340; 29.2 340; 29.3 340; 29.4 340; 29.5 340; 29.6 340; 29.7 340; 29.8 340; 29.9 340; 30.0 340; 30.1 340; 30.2 340; 30.3 340; 30.4 340; 30.5 340; 30.6 340; 30.7 340; 30.8 340; 30.9 340; 31.0 340; 31.1 340; 31.2 340; 31.3 340; 31.4 340; 31.5 340; 31.6 340; 31.7 340; 31.8 340; 31.9 340; 32.0 340; 32.1 340; 32.2 340; 32.3 340; 32.4 340; 32.5 340; 32.6 340; 32.7 340; 32.8 340; 32.9 340; 33.0 340; 33.1 340; 33.2 340; 33.3 340; 33.4 340; 33.5 340; 33.6 340; 33.7 340; 33.8 340; 33.9 340; 34.0 340; 34.1 340; 34.2 340; 34.3 340; 34.4 340; 34.5 340; 34.6 340; 34.7 340; 34.8 340; 34.9 340; 35.0 340; 35.1 340; 35.2 340; 35.3 340; 35.4 340; 35.5 340; 35.6 340; 35.7 340; 35.8 340; 35.9 340; 36.0 340; 36.1 340; 36.2 340; 36.3 340; 36.4 340; 36.5 340; 36.6 340; 36.7 340; 36.8 340; 36.9 340; 37.0 340; 37.1 340; 37.2 340; 37.3 340; 37.4 340; 37.5 340; 37.6 340; 37.7 340; 37.8 340; 37.9 340; 38.0 340; 38.1 340; 38.2 340; 38.3 340; 38.4 340; 38.5 340; 38.6 340; 38.7 340; 38.8 340; 38.9 340; 39.0 340; 39.1 340; 39.2 340; 39.3 340; 39.4 340; 39.5 340; 39.6 340; 39.7 340; 39.8 340; 39.9 340; 40.0 340; 40.1 340; 40.2 340; 40.3 340; 40.4 340; 40.5 340; 40.6 340; 40.7 340; 40.8 340; 40.9 340; 41.0 340; 41.1 340; 41.2 340; 41.3 340; 41.4 340; 41.5 340; 41.6 340; 41.7 340; 41.8 340; 41.9 340; 42.0 340; 42.1 340; 42.2 340; 42.3 340; 42.4 340; 42.5 340; 42.6 340; 42.7 340; 42.8 340; 42.9 340; 43.0 340; 43.1 340; 43.2 340; 43.3 340; 43.4 340; 43.5 340; 43.6 340; 43.7 340; 43.8 340; 43.9 340; 44.0 340; 44.1 340; 44.2 340; 44.3 340; 44.4 340; 44.5 340; 44.6 340; 44.7 340; 44.8 340; 44.9 340; 45.0 340; 45.1 340; 45.2 340; 45.3 340; 45.4 340; 45.5 340; 45.6 340; 45.7 340; 45.8 340; 45.9 340; 46.0 340; 46.1 340; 46.2 340; 46.3 340; 46.4 340; 46.5 340; 46.6 340; 46.7 340; 46.8 340; 46.9 340; 47.0 340; 47.1 340; 47.2 340; 47.3 340; 47.4 340; 47.5 340; 47.6 340; 47.7 340; 47.8 340; 47.9 340; 48.0 340; 48.1 340; 48.2 340; 48.3 340; 48.4 340; 48.5 340; 48.6 340; 48.7 340; 48.8 340; 48.9 340; 49.0 340; 49.1 340; 49.2 340; 49.3 340; 49.4 340; 49.5 340; 49.6 340; 49.7 340; 49.8 340; 49.9 340; 50.0 340; 50.1 340; 50.2 340; 50.3 340; 50.4 340; 50.5 340; 50.6 340; 50.7 340; 50.8 340; 50.9 340; 51.0 340; 51.1 340; 51.2 340; 51.3 340; 51.4 340; 51.5 340; 51.6 340; 51.7 340; 51.8 340; 51.9 340; 52.0 340; 52.1 340; 52.2 340; 52.3 340; 52.4 340; 52.5 340; 52.6 340; 52.7 340; 52.8 340; 52.9 340; 53.0 340; 53.1 340; 53.2 340; 53.3 340; 53.4 340; 53.5 340; 53.6 340; 53.7 340; 53.8 340; 53.9 340; 54.0 340; 54.1 340; 54.2 340; 54.3 340; 54.4 340; 54.5 340; 54.6 340; 54.7 340; 54.8 340; 54.9 340; " 
**.MA[*].tcpApp[0].tClose = 55.0s

**.MA[*].tcpApp[1].active = true
**.MA[*].tcpApp[1].localPort = -1
**.MA[*].tcpApp[1].connectAddress = "CN1[*]"
**.MA[*].tcpApp[1].connectPort = 1001
**.MA[*].tcpApp[1].tOpen = 10s
**.MA[*].tcpApp[1].tSend = 25.0s
**.MA[*].tcpApp[1].sendBytes = 0B
**.MA[*].tcpApp[1].sendScript = " 25.0 1480; 25.1 1480; 25.2 1480; 25.3 1480; 25.4 1480; 25.5 1480; 25.6 1480; 25.7 1480; 25.8 1480; 25.9 1480; 26.0 1480; 26.1 1480; 26.2 1480; 26.3 1480; 26.4 1480; 26.5 1480; 26.6 1480; 26.7 1480; 26.8 1480; 26.9 1480; 27.0 1480; 27.1 1480; 27.2 1480; 27.3 1480; 27.4 1480; 27.5 1480; 27.6 1480; 27.7 1480; 27.8 1480; 27.9 1480; 28.0 1480; 28.1 1480; 28.2 1480; 28.3 1480; 28.4 1480; 28.5 1480; 28.6 1480; 28.7 740; " 
**.MA[*].tcpApp[1].tClose = 55.0s

**.MA[*].tcpApp[2].active = true
**.MA[*].tcpApp[2].localPort = -1
**.MA[*].tcpApp[2].connectAddress = "CN1[*]"
**.MA[*].tcpApp[2].connectPort = 1002
**.MA[*].tcpApp[2].tOpen = 10s
**.MA[*].tcpApp[2].tSend = 25.0s
**.MA[*].tcpApp[2].sendBytes = 0B
**.MA[*].tcpApp[2].sendScript = " 25.0 100000; 25.1 100000; 25.2 100000; 25.3 100000; 25.4 100000; 25.5 100000; 25.6 100000; 25.7 100000; 25.8 100000; 25.9 100000; 26.0 100000; 26.1 100000; 26.2 100000; 26.3 100000; 26.4 100000; 26.5 100000; 26.6 100000; 26.7 100000; 26.8 100000; 26.9 100000; 27.0 100000; 27.1 100000; 27.2 100000; 27.3 100000; 27.4 100000; 27.5 100000; 27.6 100000; 27.7 100000; 27.8 100000; 27.9 100000; 28.0 100000; 28.1 100000; 28.2 100000; 28.3 100000; 28.4 100000; 28.5 100000; 28.6 100000; 28.7 100000; 28.8 100000; 28.9 100000; 29.0 100000; 29.1 100000; 29.2 100000; 29.3 100000; 29.4 100000; 29.5 100000; 29.6 100000; 29.7 100000; 29.8 100000; 29.9 100000; 30.0 100000; 30.1 100000; 30.2 100000; 30.3 100000; 30.4 100000; 30.5 100000; 30.6 100000; 30.7 100000; 30.8 100000; 30.9 100000; 31.0 100000; 31.1 100000; 31.2 100000; 31.3 100000; 31.4 100000; 31.5 100000; 31.6 100000; 31.7 100000; 31.8 100000; 31.9 100000; 32.0 100000; 32.1 100000; 32.2 100000; 32.3 100000; 32.4 100000; 32.5 100000; 32.6 100000; 32.7 100000; 32.8 100000; 32.9 100000; 33.0 100000; 33.1 100000; 33.2 100000; 33.3 100000; 33.4 100000; 33.5 100000; 33.6 100000; 33.7 100000; 33.8 100000; 33.9 100000; 34.0 100000; 34.1 100000; 34.2 100000; 34.3 100000; 34.4 100000; 34.5 100000; 34.6 100000; 34.7 100000; 34.8 100000; 34.9 100000; 35.0 100000; 35.1 100000; 35.2 100000; 35.3 100000; 35.4 100000; 35.5 100000; 35.6 100000; 35.7 100000; 35.8 100000; 35.9 100000; 36.0 100000; 36.1 100000; 36.2 100000; 36.3 100000; 36.4 100000; 36.5 100000; 36.6 100000; 36.7 100000; 36.8 100000; 36.9 100000; 37.0 100000; 37.1 100000; 37.2 100000; 37.3 100000; 37.4 100000; 37.5 100000; 37.6 100000; 37.7 100000; 37.8 100000; 37.9 100000; 38.0 100000; 38.1 100000; 38.2 100000; 38.3 100000; 38.4 100000; 38.5 100000; 38.6 100000; 38.7 100000; 38.8 100000; 38.9 100000; 39.0 100000; 39.1 100000; 39.2 100000; 39.3 100000; 39.4 100000; 39.5 100000; 39.6 100000; 39.7 100000; 39.8 100000; 39.9 100000; " 
**.MA[*].tcpApp[2].tClose = 55.0s

**.MA[*].tcpApp[3].active = true
**.MA[*].tcpApp[3].localPort = -1
**.MA[*].tcpApp[3].connectAddress = "CN1[*]"
**.MA[*].tcpApp[3].connectPort = 1003
**.MA[*].tcpApp[3].tOpen = 10s
**.MA[*].tcpApp[3].tSend = 25.0s
**.MA[*].tcpApp[3].sendBytes = 0B
**.MA[*].tcpApp[3].sendScript = " 25.0 98180; 25.1 98180; 25.2 98180; 25.3 98180; 25.4 98180; 25.5 98180; 25.6 98180; 25.7 98180; 25.8 98180; 25.9 98180; 26.0 98180; 26.1 98180; 26.2 98180; 26.3 98180; 26.4 98180; 26.5 98180; 26.6 98180; 26.7 98180; 26.8 98180; 26.9 98180; 27.0 98180; 27.1 98180; 27.2 98180; 27.3 98180; 27.4 98180; 27.5 98180; 27.6 98180; 27.7 98180; 27.8 98180; 27.9 98180; 28.0 98180; 28.1 98180; 28.2 98180; 28.3 98180; 28.4 98180; 28.5 98180; 28.6 98180; 28.7 98920; 28.8 99660; 28.9 99660; 29.0 99660; 29.1 99660; 29.2 99660; 29.3 99660; 29.4 99660; 29.5 99660; 29.6 99660; 29.7 99660; 29.8 99660; 29.9 99660; 30.0 99660; 30.1 99660; 30.2 99660; 30.3 99660; 30.4 99660; 30.5 99660; 30.6 99660; 30.7 99660; 30.8 99660; 30.9 99660; 31.0 99660; 31.1 99660; 31.2 99660; 31.3 99660; 31.4 99660; 31.5 99660; 31.6 99660; 31.7 99660; 31.8 99660; 31.9 99660; 32.0 99660; 32.1 99660; 32.2 99660; 32.3 99660; 32.4 99660; 32.5 99660; 32.6 99660; 32.7 99660; 32.8 99660; 32.9 99660; 33.0 99660; 33.1 99660; 33.2 99660; 33.3 99660; 33.4 99660; 33.5 99660; 33.6 99660; 33.7 99660; 33.8 99660; 33.9 99660; 34.0 99660; 34.1 99660; 34.2 99660; 34.3 99660; 34.4 99660; 34.5 99660; 34.6 99660; 34.7 99660; 34.8 99660; 34.9 99660; 35.0 99660; 35.1 99660; 35.2 99660; 35.3 99660; 35.4 99660; 35.5 99660; 35.6 99660; 35.7 99660; 35.8 99660; 35.9 99660; 36.0 99660; 36.1 99660; 36.2 99660; 36.3 99660; 36.4 99660; 36.5 99660; 36.6 99660; 36.7 99660; 36.8 99660; 36.9 99660; 37.0 99660; 37.1 99660; 37.2 99660; 37.3 99660; 37.4 99660; 37.5 99660; 37.6 99660; 37.7 99660; 37.8 99660; 37.9 99660; 38.0 99660; 38.1 99660; 38.2 99660; 38.3 99660; 38.4 99660; 38.5 99660; 38.6 99660; 38.7 99660; 38.8 99660; 38.9 99660; 39.0 99660; 39.1 99660; 39.2 99660; 39.3 99660; 39.4 99660; 39.5 99660; 39.6 99660; 39.7 99660; 39.8 99660; 39.9 99660; 40.0 100000; 40.1 100000; 40.2 100000; 40.3 100000; 40.4 100000; 40.5 100000; 40.6 100000; 40.7 100000; 40.8 100000; 40.9 100000; 41.0 100000; 41.1 100000; 41.2 100000; 41.3 100000; 41.4 100000; 41.5 100000; 41.6 100000; 41.7 100000; 41.8 100000; 41.9 100000; 42.0 100000; 42.1 100000; 42.2 100000; 42.3 100000; 42.4 100000; 42.5 100000; 42.6 100000; 42.7 100000; 42.8 100000; 42.9 100000; 43.0 100000; 43.1 100000; 43.2 100000; 43.3 100000; 43.4 100000; 43.5 100000; 43.6 100000; 43.7 100000; 43.8 100000; 43.9 100000; 44.0 100000; 44.1 100000; 44.2 100000; 44.3 100000; 44.4 100000; 44.5 100000; 44.6 100000; 44.7 100000; 44.8 100000; 44.9 100000; 45.0 100000; 45.1 100000; 45.2 100000; 45.3 100000; 45.4 100000; 45.5 100000; 45.6 100000; 45.7 100000; 45.8 100000; 45.9 100000; 46.0 100000; 46.1 100000; 46.2 100000; 46.3 100000; 46.4 100000; 46.5 100000; 46.6 100000; 46.7 100000; 46.8 100000; 46.9 100000; 47.0 100000; 47.1 100000; 47.2 100000; 47.3 100000; 47.4 100000; 47.5 100000; 47.6 100000; 47.7 100000; 47.8 100000; 47.9 100000; 48.0 100000; 48.1 100000; 48.2 100000; 48.3 100000; 48.4 100000; 48.5 100000; 48.6 100000; 48.7 100000; 48.8 100000; 48.9 100000; 49.0 100000; 49.1 100000; 49.2 100000; 49.3 100000; 49.4 100000; 49.5 100000; 49.6 100000; 49.7 100000; 49.8 100000; 49.9 100000; 50.0 100000; 50.1 100000; 50.2 100000; 50.3 100000; 50.4 100000; 50.5 100000; 50.6 100000; 50.7 100000; 50.8 100000; 50.9 100000; 51.0 100000; 51.1 100000; 51.2 100000; 51.3 100000; 51.4 100000; 51.5 100000; 51.6 100000; 51.7 100000; 51.8 100000; 51.9 100000; 52.0 100000; 52.1 100000; 52.2 100000; 52.3 100000; 52.4 100000; 52.5 100000; 52.6 100000; 52.7 100000; 52.8 100000; 52.9 100000; 53.0 100000; 53.1 100000; 53.2 100000; 53.3 100000; 53.4 100000; 53.5 100000; 53.6 100000; 53.7 100000; 53.8 100000; 53.9 100000; 54.0 100000; 54.1 100000; 54.2 100000; 54.3 100000; 54.4 100000; 54.5 100000; 54.6 100000; 54.7 100000; 54.8 100000; 54.9 100000; 55.0 100000; 55.1 6500; " 
**.MA[*].tcpApp[3].tClose = 10000.0s



#-----------------------------Server configuration-----------------------------

#-------------------- Echo server --------------------
**.CN1[*].tcpApp[*].typename = "TCPEchoApp" 
**.CN1[*].tcpApp[0].localAddress = ""
**.CN1[*].tcpApp[0].localPort = 1000
**.CN1[*].tcpApp[0].echoFactor = 1
**.CN1[*].tcpApp[0].echoDelay = 0s

**.CN1[*].tcpApp[1].localAddress = ""
**.CN1[*].tcpApp[1].localPort = 1001
**.CN1[*].tcpApp[1].echoFactor = 10
**.CN1[*].tcpApp[1].echoDelay = 1s

**.CN1[*].tcpApp[2].localAddress = ""
**.CN1[*].tcpApp[2].localPort = 1002
**.CN1[*].tcpApp[2].echoFactor = 15
**.CN1[*].tcpApp[2].echoDelay = 2s

**.CN1[*].tcpApp[3].localAddress = ""
**.CN1[*].tcpApp[3].localPort = 1003
**.CN1[*].tcpApp[3].echoFactor = 50
**.CN1[*].tcpApp[3].echoDelay = 5s



