[General]
# ============================ simulation configuration ============================
network = frankfurt_urban
# Provides only minimal status updates on the console.
cmdenv-express-mode = true
# Allows the simulation to ask missing parameter values interactively
cmdenv-interactive = false
# Limits how long the simulation should run (in simulation time)
sim-time-limit = 440s # 450s per car for route
# Turns on the recording of the simulator events into an event log file. .elog file
#record-eventlog = false
# If the runtime detects any error, it will generate a breakpoint so you will be able to 
# check the location and the context of the problem in your debugger.
#debug-on-errors = false
# cmdenv-runs-to-execute specifies which simulation runs should be executed. 
#cmdenv-runs-to-execute 
# Specifies the search path for Tkenv plugins. Tkenv plugins are .tcl
#files that get evaluated on startup
tkenv-plugin-path = ../../../etc/plugins
# Path of run files, used in bash
ned-path = ../../simulation;../../src
load-libs = ../../src/INET
# Recording results into the scalar file
# Recording results into the scalar file
**.tcpApp[*].**.scalar-recording = true
**.udpApp[*].**.scalar-recording = true
**.pingApp[*].**.scalar-recording = true
**.idLayer.**.scalar-recording = true
**.CN1[*].**.scalar-recording = true
**.MA[*].**.scalar-recording = true
**.CA.**.scalar-recording = true
**.DA1[*].**.scalar-recording = true
**.scalar-recording = false
# Recording output vector results
#**.CN1[*].**.vector-recording = true
**.tcpApp[*].**.vector-recording = true
**.udpApp[*].**.vector-recording = true
**.pingApp[*].**.vector-recording = true
**.idLayer.**.vector-recording = true
**.MA[*].mobility.**.vector-recording = true
**.MA[*].**.mgmt.**.vector-recording = true
#**.MA[*].**.mac.**.vector-recording = true
**.MA[*].**.agent.**.vector-recording = true
**.udp.**.vector-recording = true
**.tcp.**.vector-recording = true
**.vector-recording = false
# Selects the kth set of automatic random number seeds for the simulation.
# Meaningful values include ${repetition} which is the repeat loop counter (see repeat= key), and ${runnumber}.
repeat = 100
seed-set = ${runnumber}

# printing debug information
**.debug = true
# User Interface: either use TKenv for Oment GUI or Cmdenv for console output
# user-interface = Cmdenv

# --------------------------- Animation configuration ---------------------------------
#**.viewTranslation = "1100 800"
#**.updateCanvasInterval = 10ms
#**.viewAngle = "isometric"
#**.leaveMovementTrail = true
#**.leaveIntersectionTrail = true
#**.leaveCommunicationTrail = true
#**.leaveCommunicationHeat = true
#**.displayCommunication = true
#**.displayCommunicationRange = true
**.displayInterferenceRange = false
#**.drawCommunication2D = true

# ============================ Scenario and application configuration =================
# number of mobile nodes and data agents 
*.total_mn = 1
*.total_da = 1
# number of correspondent node
*.total_cn = 1
# disable id layer
#**.MA[*].idLayer.isIdLayerEnabled = false

# --------------------------- PING configuration -------------------------------------
*.MA[*].numPingApps = 1
*.MA[*].pingApp[*].destAddr = "CN1[*]"
*.MA[*].pingApp[*].startTime = 20s
*.MA[*].pingApp[*].stopTime = 430s
*.MA[*].pingApp[*].packetSize = 64B
*.MA[*].pingApp[*].sendInterval = 1s	
#**.pingApp[*].printPing = false
#*.MA[*].pingApp[*].count = -1 # max no of pings to finish process
#*.MA[*].pingApp[*].stopTime = -1 # time to finish
# CN does not need to have a ping application. Ping responses are handled by IPv6.
#*.CN1[*].numPingApps = 0
#*.CN1[*].pingApp[*].destAddr = "DA1[*]"
#*.CN1[*].pingApp[*].startTime = 10s
#*.CN1[*].pingApp[*].stopTime = 430s
#*.CN1[*].pingApp[*].packetSize = 64B
#*.CN1[*].pingApp[*].sendInterval = 0.01s	

# ============================ SUMO configuration ====================================
*.manager.numVehicles = 1
*.manager.updateInterval = 0.1s
#*.manager.connectAt = 1s
*.manager.host = "localhost"
*.manager.port = 9999
*.manager.moduleType = "inet.node.ipv6mev.MobileAgent"
*.manager.moduleName = "MA"
*.manager.moduleDisplayString = ""
*.manager.autoShutdown = true
*.manager.margin = 25
*.manager.useRouteDistributions = false
*.manager.launchConfig = xmldoc("map.launchd.xml")
# --------------------------- Mobility configuration -----------------------------------
*.MA[*].mobilityType = "TraCIMobility"
**.constraintAreaMinX = 0m
**.constraintAreaMinY = 0m
**.constraintAreaMinZ = 0m
**.constraintAreaMaxX = 6231m
**.constraintAreaMaxY = 2104m
**.constraintAreaMaxZ = 50m
# --------------------------- Environment configuration --------------------------------
**.spaceMinX = 0m
**.spaceMinY = 0m
**.spaceMinZ = 0m
**.spaceMaxX = 6231m
**.spaceMaxY = 2104m
**.spaceMaxZ = 50m
# ---------------------------------------------
#**.obstacleLossType = "TracingObstacleLoss"
#**.config = xmldoc("outdoor.xml")
#**.axisLength = 100m

# ============================ ID layer configuration ==================================
**.MA[*].idLayer.controlAgent = "CA"
**.CA.idLayer.dataAgents = "DA1[*]"
**.CA.idLayer.indexOperator = 1

# ============================ Network layer configuration =============================
**.neighbourDiscovery.minIntervalBetweenRAs = 0.03s 
**.neighbourDiscovery.maxIntervalBetweenRAs = 0.07s 
# ---------------------------------------------
**.ipv6.procDelay = truncnormal(10us,30us)
# ---------------------------------------------
**.relayUnitType = "MACRelayUnit"
**.relayUnit.processingTime = truncnormal(10us,30us)
**.relayUnit.addressTableSize = 100
**.relayUnit.agingTime = 120s
**.relayUnit.bufferSize = 1MiB
**.relayUnit.highWatermark = 512KiB
**.relayUnit.pauseUnits = 300  # pause for 300*512 bit (19200 byte) time
**.relayUnit.addressTableFile = ""
**.relayUnit.numCPUs = 1

# ============================ Link layer configuration =================================
**.mac.address = "auto"
#**.mac.EDCA = false # ETSI 302 663  
#**.mac.AIFSN0 = 9 # 
#**.mac.AIFSN1 = 6 # 
#**.mac.AIFSN2 = 3 # 
#**.mac.AIFSN3 = 2 # 
##**.mac.TXOP0 = 0s
##**.mac.TXOP1 = 0s
##**.mac.TXOP2 = 0s
##**.mac.TXOP3 = 0s
#**.mac.defaultAC = 2 # 
#**.mac.AIFSN = 2 # 
#**.mac.cwMinData = 7 # 
#**.mac.cwMaxData = 15 # 
#**.mac.slotTime = 13us
#**.mac.retryLimit = 7
# ---------------------------------------------
**.mgmt.numAuthSteps = 2
**.mgmt.beaconInterval = 0.05s + uniform(-0.005s,0.005s) # 20Hz beacon intervall from 11pDC specification for freeway; 10Hz for urban environment
#**.mgmt.frameCapacity = 5
#**.opMode = "a" # does not work! only g
#**.wlan*.bitrate = 18Mbps
#**.wlan*.mac.basicBitrate = 6Mbps
#**.wlan*.mac.controlBitrate = 6Mbps
#**.wlan*.mac.autoBitrate = 1
#**.MA*.**.bitrate = 18Mbps
# --------------------------- Mobile node configuration --------------------------------
**.MA*.numRadios = 1
**.MA*.wlan[*].agent.default_ssid = "" # should be empty, else the authentication process fails
**.MA*.wlan[*].agent.activeScan = true
**.MA*.wlan[*].agent.probeDelay = 0.1s
**.MA*.wlan[*].agent.minChannelTime = 0.1s
**.MA*.wlan[*].agent.maxChannelTime = 0.3s
#**.MA*.wlan[*].agent.associationTimeout = 1s
#**.MA*.wlan[*].agent.authenticationTimeout = 1s
**.MA*.wlan[*].agent.channelsToScan = "1 6 11"  # ${channelNumber=2..10}
# --------------------------- Infrastructure configuration ------------------------------
**.AP_1.wlan*.mgmt.ssid = "AP_1"
**.AP_2.wlan*.mgmt.ssid = "AP_2"
**.AP_3.wlan*.mgmt.ssid = "AP_3"
**.AP_4.wlan*.mgmt.ssid = "AP_4"
**.AP_5.wlan*.mgmt.ssid = "AP_5"
**.AP_6.wlan*.mgmt.ssid = "AP_6"
**.AP_7.wlan*.mgmt.ssid = "AP_7"
**.AP_8.wlan*.mgmt.ssid = "AP_8"
**.AP_9.wlan*.mgmt.ssid = "AP_9"
**.AP_1.wlan*.radio.channelNumber = 1
**.AP_2.wlan*.radio.channelNumber = 6
**.AP_3.wlan*.radio.channelNumber = 11
**.AP_4.wlan*.radio.channelNumber = 1
**.AP_5.wlan*.radio.channelNumber = 6
**.AP_6.wlan*.radio.channelNumber = 11
**.AP_7.wlan*.radio.channelNumber = 1
**.AP_8.wlan*.radio.channelNumber = 6
**.AP_9.wlan*.radio.channelNumber = 11
# ---------------------------------------------
**.eth[*].queueType = "DropTailQueue" # in routers
**.eth[*].mac.promiscuous = false
**.eth[*].mac.duplexMode = true
**.eth[*].queue.pauseQueue.frameCapacity = 50  # in routers
**.ppp[*].queueType = "DropTailQueue" # in routers
**.ppp[*].queue.frameCapacity = 10  # in routers
# ============================ Physical layer configuration =================================
#**.radio.bandName = "5 GHz"
#**.radio.bandwidth = 10 MHz
#**.radio.antennaType = "IsotropicAntenna"
#**.radio.carrierFrequency = 5.89e9 Hz # ETSI 302571 - 6.10.2  
**.radio.transmitter.power = 25mW # ETSI 302663-4.3: G5 SCH2 channelNo 178; rate=12 Mbit/s; power_limit=23dBm
**.radio.receiver.sensitivity = -83dBm # -77dBm Defined as min SNR value to distinguish signal from noise. If received signal is below this value it is interpreted as noise. Value taken from C2C  system profile v1.0.4 
**.radio.receiver.energyDetection = -88dBm # -62dBm
**.radio.receiver.snirThreshold = 0dB # defined as minimum SNR to try to interpret data. It is calculated from the sum of all received noise signals. Taken from ETSI 102687
**.radioMedium.**.maxTransmissionPower = 25mW
#**.radio.transmitter.modulation = "QAM-16"
#**.radio.receiver.modulation = "QAM-16"
**.radioMedium.pathLossType = "RicianFading" # Low packet drop: 10% - 20%
#**.radioMedium.pathLossType = "RayleighFading" # High packet drop: 30% - 50%
#**.radioMedium.pathLossType = "NakagamiFading" # Very high packet drop: 30% - 50%
#**.radioMedium.pathLossType = "FreeSpacePathLoss"
**.radioMedium.mediumLimitCache.minReceptionPower = -83dBm # ETSI  302571 6.10.2: specifies rec sensitivity -85dBm for BPSK
**.radioMedium.mediumLimitCache.minInterferencePower = -85dBm # if to high, bands overlap and causes error 'not supported'
#**.radioMedium.mediumLimitCache.maxInterferenceRange = 800m # not testes
**.radioMedium.backgroundNoise.power = -100dBm # 
**.radioMedium.propagationType = "ConstantSpeedPropagation"
#**.radioMedium.rangeFilter = "communicationRange" # Does not work. Causes error 139
#**.radioMedium.mediumLimitCache.maxCommunicationRange = 600m # ETSI102687- Table A.3
#**.radioMedium.listeningFilter = true # does not work
#**.radioMedium.radioModeFilter = true # does not work


#[Config UDP_TEST]
##repeat = 1
##sim-time-limit = 300s
##**.MA*.numRadios = 3
##**.MA*.wlan[0].agent.channelsToScan = "1"  # ${channelNum

[Config Generated_TCP_APPS]
# --------------------------- TCP configuration --------------------------------------

#[Insert_generated_tcp_apps_here]

[Config Generated_scheduled_TCP_APPS]
# --------------------------- TCP configuration --------------------------------------

**.numTcpApps = 4
**.MA[*].tcpApp[*].typename = "TCPSessionApp" 

**.MA[*].tcpApp[0].active = true
**.MA[*].tcpApp[0].localPort = -1
**.MA[*].tcpApp[0].connectAddress = "CN1[*]"
**.MA[*].tcpApp[0].connectPort = 1000
**.MA[*].tcpApp[0].tOpen = 10s
**.MA[*].tcpApp[0].tSend = 20.0s
**.MA[*].tcpApp[0].sendBytes = 0B
**.MA[*].tcpApp[0].sendScript = " 20.0 684; 20.1 684; 20.2 684; 20.3 684; 20.4 684; 20.5 684; 20.6 684; 20.7 684; 20.8 684; 20.9 684; 21.0 684; 21.1 684; 21.2 684; 21.3 684; 21.4 684; 21.5 684; 21.6 684; 21.7 684; 21.8 684; 21.9 684; 22.0 684; 22.1 684; 22.2 684; 22.3 684; 22.4 684; 22.5 684; 22.6 684; 22.7 684; 22.8 684; 22.9 684; 23.0 684; 23.1 684; 23.2 684; 23.3 684; 23.4 684; 23.5 684; 23.6 684; 23.7 684; 23.8 684; 23.9 684; 24.0 684; 24.1 684; 24.2 684; 24.3 684; 24.4 684; 24.5 684; 24.6 684; 24.7 684; 24.8 684; 24.9 684; 25.0 684; 25.1 684; 25.2 684; 25.3 684; 25.4 684; 25.5 684; 25.6 684; 25.7 684; 25.8 684; 25.9 684; 26.0 684; 26.1 684; 26.2 684; 26.3 684; 26.4 684; 26.5 684; 26.6 684; 26.7 684; 26.8 684; 26.9 684; 27.0 684; 27.1 684; 27.2 684; 27.3 684; 27.4 684; 27.5 684; 27.6 684; 27.7 684; 27.8 684; 27.9 684; 28.0 684; 28.1 684; 28.2 684; 28.3 684; 28.4 684; 28.5 684; 28.6 684; 28.7 684; 28.8 684; 28.9 684; 29.0 684; 29.1 684; 29.2 684; 29.3 684; 29.4 684; 29.5 684; 29.6 684; 29.7 684; 29.8 684; 29.9 684; 30.0 684; 30.1 684; 30.2 684; 30.3 684; 30.4 684; 30.5 684; 30.6 684; 30.7 684; 30.8 684; 30.9 684; 31.0 684; 31.1 684; 31.2 684; 31.3 684; 31.4 684; 31.5 684; 31.6 684; 31.7 684; 31.8 684; 31.9 684; 32.0 684; 32.1 684; 32.2 684; 32.3 684; 32.4 684; 32.5 684; 32.6 684; 32.7 684; 32.8 684; 32.9 684; 33.0 684; 33.1 684; 33.2 684; 33.3 684; 33.4 684; 33.5 684; 33.6 684; 33.7 684; 33.8 684; 33.9 684; 34.0 684; 34.1 684; 34.2 684; 34.3 684; 34.4 684; 34.5 684; 34.6 684; 34.7 684; 34.8 684; 34.9 684; 35.0 684; 35.1 684; 35.2 684; 35.3 684; 35.4 684; 35.5 684; 35.6 684; 35.7 684; 35.8 684; 35.9 684; 36.0 684; 36.1 684; 36.2 684; 36.3 684; 36.4 684; 36.5 684; 36.6 684; 36.7 684; 36.8 684; 36.9 684; 37.0 684; 37.1 684; 37.2 684; 37.3 684; 37.4 684; 37.5 684; 37.6 684; 37.7 684; 37.8 684; 37.9 684; 38.0 684; 38.1 684; 38.2 684; 38.3 684; 38.4 684; 38.5 684; 38.6 684; 38.7 684; 38.8 684; 38.9 684; 39.0 684; 39.1 684; 39.2 684; 39.3 684; 39.4 684; 39.5 684; 39.6 684; 39.7 684; 39.8 684; 39.9 684; 40.0 684; 40.1 684; 40.2 684; 40.3 684; 40.4 684; 40.5 684; 40.6 684; 40.7 684; 40.8 684; 40.9 684; 41.0 684; 41.1 684; 41.2 684; 41.3 684; 41.4 684; 41.5 684; 41.6 684; 41.7 684; 41.8 684; 41.9 684; 42.0 684; 42.1 684; 42.2 684; 42.3 684; 42.4 684; 42.5 684; 42.6 684; 42.7 684; 42.8 684; 42.9 684; 43.0 684; 43.1 684; 43.2 684; 43.3 684; 43.4 684; 43.5 684; 43.6 684; 43.7 684; 43.8 684; 43.9 684; 44.0 684; 44.1 684; 44.2 684; 44.3 684; 44.4 684; 44.5 684; 44.6 684; 44.7 684; 44.8 684; 44.9 684; 45.0 684; 45.1 684; 45.2 684; 45.3 684; 45.4 684; 45.5 684; 45.6 684; 45.7 684; 45.8 684; 45.9 684; 46.0 684; 46.1 684; 46.2 684; 46.3 684; 46.4 684; 46.5 684; 46.6 684; 46.7 684; 46.8 684; 46.9 684; 47.0 684; 47.1 684; 47.2 684; 47.3 684; 47.4 684; 47.5 684; 47.6 684; 47.7 684; 47.8 684; 47.9 684; 48.0 684; 48.1 684; 48.2 684; 48.3 684; 48.4 684; 48.5 684; 48.6 684; 48.7 684; 48.8 684; 48.9 684; 49.0 684; 49.1 684; 49.2 684; 49.3 684; 49.4 684; 49.5 684; 49.6 684; 49.7 684; 49.8 684; 49.9 684; 50.0 684; 50.1 684; 50.2 684; 50.3 684; 50.4 684; 50.5 684; 50.6 684; 50.7 684; 50.8 684; 50.9 684; 51.0 684; 51.1 684; 51.2 684; 51.3 684; 51.4 684; 51.5 684; 51.6 684; 51.7 684; 51.8 684; 51.9 684; 52.0 684; 52.1 684; 52.2 684; 52.3 684; 52.4 684; 52.5 684; 52.6 684; 52.7 684; 52.8 684; 52.9 684; 53.0 684; 53.1 684; 53.2 684; 53.3 684; 53.4 684; 53.5 684; 53.6 684; 53.7 684; 53.8 684; 53.9 684; 54.0 684; 54.1 684; 54.2 684; 54.3 684; 54.4 684; 54.5 684; 54.6 684; 54.7 684; 54.8 684; 54.9 684; 55.0 684; 55.1 684; 55.2 684; 55.3 684; 55.4 684; 55.5 684; 55.6 684; 55.7 684; 55.8 684; 55.9 684; 56.0 684; 56.1 684; 56.2 684; 56.3 684; 56.4 684; 56.5 684; 56.6 684; 56.7 684; 56.8 684; 56.9 684; 57.0 684; 57.1 684; 57.2 684; 57.3 684; 57.4 684; 57.5 684; 57.6 684; 57.7 684; 57.8 684; 57.9 684; 58.0 684; 58.1 684; 58.2 684; 58.3 684; 58.4 684; 58.5 684; 58.6 684; 58.7 684; 58.8 684; 58.9 684; 59.0 684; 59.1 684; 59.2 684; 59.3 684; 59.4 684; 59.5 684; 59.6 684; 59.7 684; 59.8 684; 59.9 684; 60.0 684; 60.1 684; 60.2 684; 60.3 684; 60.4 684; 60.5 684; 60.6 684; 60.7 684; 60.8 684; 60.9 684; 61.0 684; 61.1 684; 61.2 684; 61.3 684; 61.4 684; 61.5 684; 61.6 684; 61.7 684; 61.8 684; 61.9 684; 62.0 684; 62.1 684; 62.2 684; 62.3 684; 62.4 684; 62.5 684; 62.6 684; 62.7 684; 62.8 684; 62.9 684; 63.0 684; 63.1 684; 63.2 684; 63.3 684; 63.4 684; 63.5 684; 63.6 684; 63.7 684; 63.8 684; 63.9 684; 64.0 684; 64.1 684; 64.2 684; 64.3 684; 64.4 684; 64.5 684; 64.6 684; 64.7 684; 64.8 684; 64.9 684; 65.0 684; 65.1 684; 65.2 684; 65.3 684; 65.4 684; 65.5 684; 65.6 684; 65.7 684; 65.8 684; 65.9 684; 66.0 684; 66.1 684; 66.2 684; 66.3 684; 66.4 684; 66.5 684; 66.6 684; 66.7 684; 66.8 684; 66.9 684; 67.0 684; 67.1 684; 67.2 684; 67.3 684; 67.4 684; 67.5 684; 67.6 684; 67.7 684; 67.8 684; 67.9 684; 68.0 684; 68.1 684; 68.2 684; 68.3 684; 68.4 684; 68.5 684; 68.6 684; 68.7 684; 68.8 684; 68.9 684; 69.0 684; 69.1 684; 69.2 684; 69.3 684; 69.4 684; 69.5 684; 69.6 684; 69.7 684; 69.8 684; 69.9 684; 70.0 684; 70.1 684; 70.2 684; 70.3 684; 70.4 684; 70.5 684; 70.6 684; 70.7 684; 70.8 684; 70.9 684; 71.0 684; 71.1 684; 71.2 684; 71.3 684; 71.4 684; 71.5 684; 71.6 684; 71.7 684; 71.8 684; 71.9 684; 72.0 684; 72.1 684; 72.2 684; 72.3 684; 72.4 684; 72.5 684; 72.6 684; 72.7 684; 72.8 684; 72.9 684; 73.0 684; 73.1 684; 73.2 684; 73.3 684; 73.4 684; 73.5 684; 73.6 684; 73.7 684; 73.8 684; 73.9 684; 74.0 684; 74.1 684; 74.2 684; 74.3 684; 74.4 684; 74.5 684; 74.6 684; 74.7 684; 74.8 684; 74.9 684; 75.0 684; 75.1 684; 75.2 684; 75.3 684; 75.4 684; 75.5 684; 75.6 684; 75.7 684; 75.8 684; 75.9 684; 76.0 684; 76.1 684; 76.2 684; 76.3 684; 76.4 684; 76.5 684; 76.6 684; 76.7 684; 76.8 684; 76.9 684; 77.0 684; 77.1 684; 77.2 684; 77.3 684; 77.4 684; 77.5 684; 77.6 684; 77.7 684; 77.8 684; 77.9 684; 78.0 684; 78.1 684; 78.2 684; 78.3 684; 78.4 684; 78.5 684; 78.6 684; 78.7 684; 78.8 684; 78.9 684; 79.0 684; 79.1 684; 79.2 684; 79.3 684; 79.4 684; 79.5 684; 79.6 684; 79.7 684; 79.8 684; 79.9 684; 80.0 684; 80.1 684; 80.2 684; 80.3 684; 80.4 684; 80.5 684; 80.6 684; 80.7 684; 80.8 684; 80.9 684; 81.0 684; 81.1 684; 81.2 684; 81.3 684; 81.4 684; 81.5 684; 81.6 684; 81.7 684; 81.8 684; 81.9 684; 82.0 684; 82.1 684; 82.2 684; 82.3 684; 82.4 684; 82.5 684; 82.6 684; 82.7 684; 82.8 684; 82.9 684; 83.0 684; 83.1 684; 83.2 684; 83.3 684; 83.4 684; 83.5 684; 83.6 684; 83.7 684; 83.8 684; 83.9 684; 84.0 684; 84.1 684; 84.2 684; 84.3 684; 84.4 684; 84.5 684; 84.6 684; 84.7 684; 84.8 684; 84.9 684; 85.0 684; 85.1 684; 85.2 684; 85.3 684; 85.4 684; 85.5 684; 85.6 684; 85.7 684; 85.8 684; 85.9 684; 86.0 684; 86.1 684; 86.2 684; 86.3 684; 86.4 684; 86.5 684; 86.6 684; 86.7 684; 86.8 684; 86.9 684; 87.0 684; 87.1 684; 87.2 684; 87.3 684; 87.4 684; 87.5 684; 87.6 684; 87.7 684; 87.8 684; 87.9 684; 88.0 684; 88.1 684; 88.2 684; 88.3 684; 88.4 684; 88.5 684; 88.6 684; 88.7 684; 88.8 684; 88.9 684; 89.0 684; 89.1 684; 89.2 684; 89.3 684; 89.4 684; 89.5 620; " 
**.MA[*].tcpApp[0].tClose = 90.0s

**.MA[*].tcpApp[1].active = true
**.MA[*].tcpApp[1].localPort = -1
**.MA[*].tcpApp[1].connectAddress = "CN1[*]"
**.MA[*].tcpApp[1].connectPort = 1001
**.MA[*].tcpApp[1].tOpen = 10s
**.MA[*].tcpApp[1].tSend = 5.0s
**.MA[*].tcpApp[1].sendBytes = 0B